(SAIFILE
(SAIFVERSION "2.0")
(DIRECTION "backward")
(DESIGN )
(DATE "Sun Nov 17 16:20:27 2019")
(VENDOR "Synopsys, Inc")
(PROGRAM_NAME "vcd2saif")
(VERSION "M-2016.12-SP4")
(DIVIDER / )
(TIMESCALE 1 ps)
(DURATION 53424000)
(INSTANCE mips_processor_tb
  (NET
    (Ain\[0\]
      (T0 22607462) (T1 30527959) (TX 288579)
      (TC 6) (IG 0)
    )
    (Ain\[10\]
      (T0 53135421) (T1 0) (TX 288579)
      (TC 0) (IG 0)
    )
    (Ain\[11\]
      (T0 53135421) (T1 0) (TX 288579)
      (TC 0) (IG 0)
    )
    (Ain\[12\]
      (T0 53135421) (T1 0) (TX 288579)
      (TC 0) (IG 0)
    )
    (Ain\[13\]
      (T0 53135421) (T1 0) (TX 288579)
      (TC 0) (IG 0)
    )
    (Ain\[14\]
      (T0 53135421) (T1 0) (TX 288579)
      (TC 0) (IG 0)
    )
    (Ain\[15\]
      (T0 53135421) (T1 0) (TX 288579)
      (TC 0) (IG 0)
    )
    (Ain\[16\]
      (T0 53135421) (T1 0) (TX 288579)
      (TC 0) (IG 0)
    )
    (Ain\[17\]
      (T0 53135421) (T1 0) (TX 288579)
      (TC 0) (IG 0)
    )
    (Ain\[18\]
      (T0 53135421) (T1 0) (TX 288579)
      (TC 0) (IG 0)
    )
    (Ain\[19\]
      (T0 53135421) (T1 0) (TX 288579)
      (TC 0) (IG 0)
    )
    (Ain\[1\]
      (T0 46223595) (T1 6911826) (TX 288579)
      (TC 6) (IG 0)
    )
    (Ain\[20\]
      (T0 53135421) (T1 0) (TX 288579)
      (TC 0) (IG 0)
    )
    (Ain\[21\]
      (T0 53135421) (T1 0) (TX 288579)
      (TC 0) (IG 0)
    )
    (Ain\[22\]
      (T0 53135421) (T1 0) (TX 288579)
      (TC 0) (IG 0)
    )
    (Ain\[23\]
      (T0 53135421) (T1 0) (TX 288579)
      (TC 0) (IG 0)
    )
    (Ain\[24\]
      (T0 53135421) (T1 0) (TX 288579)
      (TC 0) (IG 0)
    )
    (Ain\[25\]
      (T0 53135421) (T1 0) (TX 288579)
      (TC 0) (IG 0)
    )
    (Ain\[26\]
      (T0 53135421) (T1 0) (TX 288579)
      (TC 0) (IG 0)
    )
    (Ain\[27\]
      (T0 53135421) (T1 0) (TX 288579)
      (TC 0) (IG 0)
    )
    (Ain\[28\]
      (T0 53135421) (T1 0) (TX 288579)
      (TC 0) (IG 0)
    )
    (Ain\[29\]
      (T0 53135421) (T1 0) (TX 288579)
      (TC 0) (IG 0)
    )
    (Ain\[2\]
      (T0 29519737) (T1 23615684) (TX 288579)
      (TC 10) (IG 0)
    )
    (Ain\[30\]
      (T0 53135421) (T1 0) (TX 288579)
      (TC 0) (IG 0)
    )
    (Ain\[31\]
      (T0 53135421) (T1 0) (TX 288579)
      (TC 0) (IG 0)
    )
    (Ain\[3\]
      (T0 53135421) (T1 0) (TX 288579)
      (TC 0) (IG 0)
    )
    (Ain\[4\]
      (T0 53135421) (T1 0) (TX 288579)
      (TC 0) (IG 0)
    )
    (Ain\[5\]
      (T0 53135421) (T1 0) (TX 288579)
      (TC 0) (IG 0)
    )
    (Ain\[6\]
      (T0 53135421) (T1 0) (TX 288579)
      (TC 0) (IG 0)
    )
    (Ain\[7\]
      (T0 53135421) (T1 0) (TX 288579)
      (TC 0) (IG 0)
    )
    (Ain\[8\]
      (T0 53135421) (T1 0) (TX 288579)
      (TC 0) (IG 0)
    )
    (Ain\[9\]
      (T0 53135421) (T1 0) (TX 288579)
      (TC 0) (IG 0)
    )
    (Ain_exp\[0\]
      (T0 22896000) (T1 30528000) (TX 0)
      (TC 6) (IG 0)
    )
    (Ain_exp\[10\]
      (T0 53424000) (T1 0) (TX 0)
      (TC 0) (IG 0)
    )
    (Ain_exp\[11\]
      (T0 53424000) (T1 0) (TX 0)
      (TC 0) (IG 0)
    )
    (Ain_exp\[12\]
      (T0 53424000) (T1 0) (TX 0)
      (TC 0) (IG 0)
    )
    (Ain_exp\[13\]
      (T0 53424000) (T1 0) (TX 0)
      (TC 0) (IG 0)
    )
    (Ain_exp\[14\]
      (T0 53424000) (T1 0) (TX 0)
      (TC 0) (IG 0)
    )
    (Ain_exp\[15\]
      (T0 53424000) (T1 0) (TX 0)
      (TC 0) (IG 0)
    )
    (Ain_exp\[16\]
      (T0 53424000) (T1 0) (TX 0)
      (TC 0) (IG 0)
    )
    (Ain_exp\[17\]
      (T0 53424000) (T1 0) (TX 0)
      (TC 0) (IG 0)
    )
    (Ain_exp\[18\]
      (T0 53424000) (T1 0) (TX 0)
      (TC 0) (IG 0)
    )
    (Ain_exp\[19\]
      (T0 53424000) (T1 0) (TX 0)
      (TC 0) (IG 0)
    )
    (Ain_exp\[1\]
      (T0 46512000) (T1 6912000) (TX 0)
      (TC 6) (IG 0)
    )
    (Ain_exp\[20\]
      (T0 53424000) (T1 0) (TX 0)
      (TC 0) (IG 0)
    )
    (Ain_exp\[21\]
      (T0 53424000) (T1 0) (TX 0)
      (TC 0) (IG 0)
    )
    (Ain_exp\[22\]
      (T0 53424000) (T1 0) (TX 0)
      (TC 0) (IG 0)
    )
    (Ain_exp\[23\]
      (T0 53424000) (T1 0) (TX 0)
      (TC 0) (IG 0)
    )
    (Ain_exp\[24\]
      (T0 53424000) (T1 0) (TX 0)
      (TC 0) (IG 0)
    )
    (Ain_exp\[25\]
      (T0 53424000) (T1 0) (TX 0)
      (TC 0) (IG 0)
    )
    (Ain_exp\[26\]
      (T0 53424000) (T1 0) (TX 0)
      (TC 0) (IG 0)
    )
    (Ain_exp\[27\]
      (T0 53424000) (T1 0) (TX 0)
      (TC 0) (IG 0)
    )
    (Ain_exp\[28\]
      (T0 53424000) (T1 0) (TX 0)
      (TC 0) (IG 0)
    )
    (Ain_exp\[29\]
      (T0 53424000) (T1 0) (TX 0)
      (TC 0) (IG 0)
    )
    (Ain_exp\[2\]
      (T0 29808000) (T1 23616000) (TX 0)
      (TC 10) (IG 0)
    )
    (Ain_exp\[30\]
      (T0 53424000) (T1 0) (TX 0)
      (TC 0) (IG 0)
    )
    (Ain_exp\[31\]
      (T0 53424000) (T1 0) (TX 0)
      (TC 0) (IG 0)
    )
    (Ain_exp\[3\]
      (T0 53424000) (T1 0) (TX 0)
      (TC 0) (IG 0)
    )
    (Ain_exp\[4\]
      (T0 53424000) (T1 0) (TX 0)
      (TC 0) (IG 0)
    )
    (Ain_exp\[5\]
      (T0 53424000) (T1 0) (TX 0)
      (TC 0) (IG 0)
    )
    (Ain_exp\[6\]
      (T0 53424000) (T1 0) (TX 0)
      (TC 0) (IG 0)
    )
    (Ain_exp\[7\]
      (T0 53424000) (T1 0) (TX 0)
      (TC 0) (IG 0)
    )
    (Ain_exp\[8\]
      (T0 53424000) (T1 0) (TX 0)
      (TC 0) (IG 0)
    )
    (Ain_exp\[9\]
      (T0 53424000) (T1 0) (TX 0)
      (TC 0) (IG 0)
    )
    (Bin\[0\]
      (T0 12815771) (T1 27072824) (TX 13535405)
      (TC 10) (IG 4)
    )
    (Bin\[10\]
      (T0 39888675) (T1 0) (TX 13535325)
      (TC 0) (IG 7)
    )
    (Bin\[11\]
      (T0 39888623) (T1 0) (TX 13535377)
      (TC 0) (IG 7)
    )
    (Bin\[12\]
      (T0 38736416) (T1 1152263) (TX 13535321)
      (TC 4) (IG 5)
    )
    (Bin\[13\]
      (T0 39888721) (T1 0) (TX 13535279)
      (TC 0) (IG 7)
    )
    (Bin\[14\]
      (T0 39888623) (T1 0) (TX 13535377)
      (TC 0) (IG 7)
    )
    (Bin\[15\]
      (T0 39888575) (T1 0) (TX 13535425)
      (TC 0) (IG 7)
    )
    (Bin\[16\]
      (T0 39888623) (T1 0) (TX 13535377)
      (TC 0) (IG 7)
    )
    (Bin\[17\]
      (T0 39888771) (T1 0) (TX 13535229)
      (TC 0) (IG 7)
    )
    (Bin\[18\]
      (T0 39888746) (T1 0) (TX 13535254)
      (TC 0) (IG 7)
    )
    (Bin\[19\]
      (T0 39888746) (T1 0) (TX 13535254)
      (TC 0) (IG 7)
    )
    (Bin\[1\]
      (T0 19728557) (T1 20160158) (TX 13535285)
      (TC 14) (IG 2)
    )
    (Bin\[20\]
      (T0 39888671) (T1 0) (TX 13535329)
      (TC 0) (IG 7)
    )
    (Bin\[21\]
      (T0 39888671) (T1 0) (TX 13535329)
      (TC 0) (IG 7)
    )
    (Bin\[22\]
      (T0 39888671) (T1 0) (TX 13535329)
      (TC 0) (IG 7)
    )
    (Bin\[23\]
      (T0 39888671) (T1 0) (TX 13535329)
      (TC 0) (IG 7)
    )
    (Bin\[24\]
      (T0 39888671) (T1 0) (TX 13535329)
      (TC 0) (IG 7)
    )
    (Bin\[25\]
      (T0 39888671) (T1 0) (TX 13535329)
      (TC 0) (IG 7)
    )
    (Bin\[26\]
      (T0 39888623) (T1 0) (TX 13535377)
      (TC 0) (IG 7)
    )
    (Bin\[27\]
      (T0 39888671) (T1 0) (TX 13535329)
      (TC 0) (IG 7)
    )
    (Bin\[28\]
      (T0 39888746) (T1 0) (TX 13535254)
      (TC 0) (IG 7)
    )
    (Bin\[29\]
      (T0 39888721) (T1 0) (TX 13535279)
      (TC 0) (IG 7)
    )
    (Bin\[2\]
      (T0 34128301) (T1 5760256) (TX 13535443)
      (TC 4) (IG 6)
    )
    (Bin\[30\]
      (T0 39888746) (T1 0) (TX 13535254)
      (TC 0) (IG 7)
    )
    (Bin\[31\]
      (T0 39888746) (T1 0) (TX 13535254)
      (TC 0) (IG 7)
    )
    (Bin\[3\]
      (T0 39888648) (T1 0) (TX 13535352)
      (TC 0) (IG 7)
    )
    (Bin\[4\]
      (T0 36432448) (T1 3456156) (TX 13535396)
      (TC 10) (IG 5)
    )
    (Bin\[5\]
      (T0 37584732) (T1 2303918) (TX 13535350)
      (TC 6) (IG 7)
    )
    (Bin\[6\]
      (T0 39888577) (T1 0) (TX 13535423)
      (TC 0) (IG 7)
    )
    (Bin\[7\]
      (T0 39888723) (T1 0) (TX 13535277)
      (TC 0) (IG 7)
    )
    (Bin\[8\]
      (T0 39312513) (T1 576114) (TX 13535373)
      (TC 2) (IG 6)
    )
    (Bin\[9\]
      (T0 39888623) (T1 0) (TX 13535377)
      (TC 0) (IG 7)
    )
    (Bin_exp\[0\]
      (T0 13104000) (T1 27072000) (TX 13248000)
      (TC 8) (IG 5)
    )
    (Bin_exp\[10\]
      (T0 40176000) (T1 0) (TX 13248000)
      (TC 0) (IG 7)
    )
    (Bin_exp\[11\]
      (T0 40176000) (T1 0) (TX 13248000)
      (TC 0) (IG 7)
    )
    (Bin_exp\[12\]
      (T0 39024000) (T1 1152000) (TX 13248000)
      (TC 4) (IG 5)
    )
    (Bin_exp\[13\]
      (T0 40176000) (T1 0) (TX 13248000)
      (TC 0) (IG 7)
    )
    (Bin_exp\[14\]
      (T0 40176000) (T1 0) (TX 13248000)
      (TC 0) (IG 7)
    )
    (Bin_exp\[15\]
      (T0 40176000) (T1 0) (TX 13248000)
      (TC 0) (IG 7)
    )
    (Bin_exp\[16\]
      (T0 40176000) (T1 0) (TX 13248000)
      (TC 0) (IG 7)
    )
    (Bin_exp\[17\]
      (T0 40176000) (T1 0) (TX 13248000)
      (TC 0) (IG 7)
    )
    (Bin_exp\[18\]
      (T0 40176000) (T1 0) (TX 13248000)
      (TC 0) (IG 7)
    )
    (Bin_exp\[19\]
      (T0 40176000) (T1 0) (TX 13248000)
      (TC 0) (IG 7)
    )
    (Bin_exp\[1\]
      (T0 20016000) (T1 20160000) (TX 13248000)
      (TC 12) (IG 3)
    )
    (Bin_exp\[20\]
      (T0 40176000) (T1 0) (TX 13248000)
      (TC 0) (IG 7)
    )
    (Bin_exp\[21\]
      (T0 40176000) (T1 0) (TX 13248000)
      (TC 0) (IG 7)
    )
    (Bin_exp\[22\]
      (T0 40176000) (T1 0) (TX 13248000)
      (TC 0) (IG 7)
    )
    (Bin_exp\[23\]
      (T0 40176000) (T1 0) (TX 13248000)
      (TC 0) (IG 7)
    )
    (Bin_exp\[24\]
      (T0 40176000) (T1 0) (TX 13248000)
      (TC 0) (IG 7)
    )
    (Bin_exp\[25\]
      (T0 40176000) (T1 0) (TX 13248000)
      (TC 0) (IG 7)
    )
    (Bin_exp\[26\]
      (T0 40176000) (T1 0) (TX 13248000)
      (TC 0) (IG 7)
    )
    (Bin_exp\[27\]
      (T0 40176000) (T1 0) (TX 13248000)
      (TC 0) (IG 7)
    )
    (Bin_exp\[28\]
      (T0 40176000) (T1 0) (TX 13248000)
      (TC 0) (IG 7)
    )
    (Bin_exp\[29\]
      (T0 40176000) (T1 0) (TX 13248000)
      (TC 0) (IG 7)
    )
    (Bin_exp\[2\]
      (T0 34416000) (T1 5760000) (TX 13248000)
      (TC 4) (IG 6)
    )
    (Bin_exp\[30\]
      (T0 40176000) (T1 0) (TX 13248000)
      (TC 0) (IG 7)
    )
    (Bin_exp\[31\]
      (T0 40176000) (T1 0) (TX 13248000)
      (TC 0) (IG 7)
    )
    (Bin_exp\[3\]
      (T0 40176000) (T1 0) (TX 13248000)
      (TC 0) (IG 7)
    )
    (Bin_exp\[4\]
      (T0 36720000) (T1 3456000) (TX 13248000)
      (TC 6) (IG 5)
    )
    (Bin_exp\[5\]
      (T0 37872000) (T1 2304000) (TX 13248000)
      (TC 2) (IG 7)
    )
    (Bin_exp\[6\]
      (T0 40176000) (T1 0) (TX 13248000)
      (TC 0) (IG 7)
    )
    (Bin_exp\[7\]
      (T0 40176000) (T1 0) (TX 13248000)
      (TC 0) (IG 7)
    )
    (Bin_exp\[8\]
      (T0 39600000) (T1 576000) (TX 13248000)
      (TC 2) (IG 6)
    )
    (Bin_exp\[9\]
      (T0 40176000) (T1 0) (TX 13248000)
      (TC 0) (IG 7)
    )
    (addr\[0\]
      (T0 26639370) (T1 26496263) (TX 288367)
      (TC 30) (IG 0)
    )
    (addr\[10\]
      (T0 53135633) (T1 0) (TX 288367)
      (TC 0) (IG 0)
    )
    (addr\[11\]
      (T0 53135633) (T1 0) (TX 288367)
      (TC 0) (IG 0)
    )
    (addr\[12\]
      (T0 53135633) (T1 0) (TX 288367)
      (TC 0) (IG 0)
    )
    (addr\[13\]
      (T0 53135672) (T1 0) (TX 288328)
      (TC 0) (IG 0)
    )
    (addr\[14\]
      (T0 53135657) (T1 0) (TX 288343)
      (TC 0) (IG 0)
    )
    (addr\[15\]
      (T0 53135657) (T1 0) (TX 288343)
      (TC 0) (IG 0)
    )
    (addr\[16\]
      (T0 53135633) (T1 0) (TX 288367)
      (TC 0) (IG 0)
    )
    (addr\[17\]
      (T0 53135657) (T1 0) (TX 288343)
      (TC 0) (IG 0)
    )
    (addr\[18\]
      (T0 53135633) (T1 0) (TX 288367)
      (TC 0) (IG 0)
    )
    (addr\[19\]
      (T0 53135657) (T1 0) (TX 288343)
      (TC 0) (IG 0)
    )
    (addr\[1\]
      (T0 27791494) (T1 25344139) (TX 288367)
      (TC 16) (IG 0)
    )
    (addr\[20\]
      (T0 53135633) (T1 0) (TX 288367)
      (TC 0) (IG 0)
    )
    (addr\[21\]
      (T0 53135657) (T1 0) (TX 288343)
      (TC 0) (IG 0)
    )
    (addr\[22\]
      (T0 53135672) (T1 0) (TX 288328)
      (TC 0) (IG 0)
    )
    (addr\[23\]
      (T0 53135672) (T1 0) (TX 288328)
      (TC 0) (IG 0)
    )
    (addr\[24\]
      (T0 53135672) (T1 0) (TX 288328)
      (TC 0) (IG 0)
    )
    (addr\[25\]
      (T0 53135633) (T1 0) (TX 288367)
      (TC 0) (IG 0)
    )
    (addr\[26\]
      (T0 53135633) (T1 0) (TX 288367)
      (TC 0) (IG 0)
    )
    (addr\[27\]
      (T0 53135633) (T1 0) (TX 288367)
      (TC 0) (IG 0)
    )
    (addr\[28\]
      (T0 53135633) (T1 0) (TX 288367)
      (TC 0) (IG 0)
    )
    (addr\[29\]
      (T0 53135633) (T1 0) (TX 288367)
      (TC 0) (IG 0)
    )
    (addr\[2\]
      (T0 24911534) (T1 28224099) (TX 288367)
      (TC 12) (IG 0)
    )
    (addr\[30\]
      (T0 53135633) (T1 0) (TX 288367)
      (TC 0) (IG 0)
    )
    (addr\[31\]
      (T0 53135633) (T1 0) (TX 288367)
      (TC 0) (IG 0)
    )
    (addr\[3\]
      (T0 26063561) (T1 27072072) (TX 288367)
      (TC 12) (IG 0)
    )
    (addr\[4\]
      (T0 18575594) (T1 34560078) (TX 288328)
      (TC 10) (IG 0)
    )
    (addr\[5\]
      (T0 47951563) (T1 5184109) (TX 288328)
      (TC 8) (IG 0)
    )
    (addr\[6\]
      (T0 53135672) (T1 0) (TX 288328)
      (TC 0) (IG 0)
    )
    (addr\[7\]
      (T0 53135633) (T1 0) (TX 288367)
      (TC 0) (IG 0)
    )
    (addr\[8\]
      (T0 53135657) (T1 0) (TX 288343)
      (TC 0) (IG 0)
    )
    (addr\[9\]
      (T0 53135633) (T1 0) (TX 288367)
      (TC 0) (IG 0)
    )
    (addr_exp\[0\]
      (T0 26928000) (T1 26496000) (TX 0)
      (TC 30) (IG 0)
    )
    (addr_exp\[10\]
      (T0 53424000) (T1 0) (TX 0)
      (TC 0) (IG 0)
    )
    (addr_exp\[11\]
      (T0 53424000) (T1 0) (TX 0)
      (TC 0) (IG 0)
    )
    (addr_exp\[12\]
      (T0 53424000) (T1 0) (TX 0)
      (TC 0) (IG 0)
    )
    (addr_exp\[13\]
      (T0 53424000) (T1 0) (TX 0)
      (TC 0) (IG 0)
    )
    (addr_exp\[14\]
      (T0 53424000) (T1 0) (TX 0)
      (TC 0) (IG 0)
    )
    (addr_exp\[15\]
      (T0 53424000) (T1 0) (TX 0)
      (TC 0) (IG 0)
    )
    (addr_exp\[16\]
      (T0 53424000) (T1 0) (TX 0)
      (TC 0) (IG 0)
    )
    (addr_exp\[17\]
      (T0 53424000) (T1 0) (TX 0)
      (TC 0) (IG 0)
    )
    (addr_exp\[18\]
      (T0 53424000) (T1 0) (TX 0)
      (TC 0) (IG 0)
    )
    (addr_exp\[19\]
      (T0 53424000) (T1 0) (TX 0)
      (TC 0) (IG 0)
    )
    (addr_exp\[1\]
      (T0 28080000) (T1 25344000) (TX 0)
      (TC 16) (IG 0)
    )
    (addr_exp\[20\]
      (T0 53424000) (T1 0) (TX 0)
      (TC 0) (IG 0)
    )
    (addr_exp\[21\]
      (T0 53424000) (T1 0) (TX 0)
      (TC 0) (IG 0)
    )
    (addr_exp\[22\]
      (T0 53424000) (T1 0) (TX 0)
      (TC 0) (IG 0)
    )
    (addr_exp\[23\]
      (T0 53424000) (T1 0) (TX 0)
      (TC 0) (IG 0)
    )
    (addr_exp\[24\]
      (T0 53424000) (T1 0) (TX 0)
      (TC 0) (IG 0)
    )
    (addr_exp\[25\]
      (T0 53424000) (T1 0) (TX 0)
      (TC 0) (IG 0)
    )
    (addr_exp\[26\]
      (T0 53424000) (T1 0) (TX 0)
      (TC 0) (IG 0)
    )
    (addr_exp\[27\]
      (T0 53424000) (T1 0) (TX 0)
      (TC 0) (IG 0)
    )
    (addr_exp\[28\]
      (T0 53424000) (T1 0) (TX 0)
      (TC 0) (IG 0)
    )
    (addr_exp\[29\]
      (T0 53424000) (T1 0) (TX 0)
      (TC 0) (IG 0)
    )
    (addr_exp\[2\]
      (T0 25200000) (T1 28224000) (TX 0)
      (TC 12) (IG 0)
    )
    (addr_exp\[30\]
      (T0 53424000) (T1 0) (TX 0)
      (TC 0) (IG 0)
    )
    (addr_exp\[31\]
      (T0 53424000) (T1 0) (TX 0)
      (TC 0) (IG 0)
    )
    (addr_exp\[3\]
      (T0 26352000) (T1 27072000) (TX 0)
      (TC 12) (IG 0)
    )
    (addr_exp\[4\]
      (T0 18864000) (T1 34560000) (TX 0)
      (TC 10) (IG 0)
    )
    (addr_exp\[5\]
      (T0 48240000) (T1 5184000) (TX 0)
      (TC 8) (IG 0)
    )
    (addr_exp\[6\]
      (T0 53424000) (T1 0) (TX 0)
      (TC 0) (IG 0)
    )
    (addr_exp\[7\]
      (T0 53424000) (T1 0) (TX 0)
      (TC 0) (IG 0)
    )
    (addr_exp\[8\]
      (T0 53424000) (T1 0) (TX 0)
      (TC 0) (IG 0)
    )
    (addr_exp\[9\]
      (T0 53424000) (T1 0) (TX 0)
      (TC 0) (IG 0)
    )
    (clk
      (T0 26784000) (T1 26640000) (TX 0)
      (TC 185) (IG 0)
    )
    (errors\[0\]
      (T0 53424000) (T1 0) (TX 0)
      (TC 0) (IG 0)
    )
    (errors\[10\]
      (T0 53424000) (T1 0) (TX 0)
      (TC 0) (IG 0)
    )
    (errors\[11\]
      (T0 53424000) (T1 0) (TX 0)
      (TC 0) (IG 0)
    )
    (errors\[12\]
      (T0 53424000) (T1 0) (TX 0)
      (TC 0) (IG 0)
    )
    (errors\[13\]
      (T0 53424000) (T1 0) (TX 0)
      (TC 0) (IG 0)
    )
    (errors\[14\]
      (T0 53424000) (T1 0) (TX 0)
      (TC 0) (IG 0)
    )
    (errors\[15\]
      (T0 53424000) (T1 0) (TX 0)
      (TC 0) (IG 0)
    )
    (errors\[1\]
      (T0 53424000) (T1 0) (TX 0)
      (TC 0) (IG 0)
    )
    (errors\[2\]
      (T0 53424000) (T1 0) (TX 0)
      (TC 0) (IG 0)
    )
    (errors\[3\]
      (T0 53424000) (T1 0) (TX 0)
      (TC 0) (IG 0)
    )
    (errors\[4\]
      (T0 53424000) (T1 0) (TX 0)
      (TC 0) (IG 0)
    )
    (errors\[5\]
      (T0 53424000) (T1 0) (TX 0)
      (TC 0) (IG 0)
    )
    (errors\[6\]
      (T0 53424000) (T1 0) (TX 0)
      (TC 0) (IG 0)
    )
    (errors\[7\]
      (T0 53424000) (T1 0) (TX 0)
      (TC 0) (IG 0)
    )
    (errors\[8\]
      (T0 53424000) (T1 0) (TX 0)
      (TC 0) (IG 0)
    )
    (errors\[9\]
      (T0 53424000) (T1 0) (TX 0)
      (TC 0) (IG 0)
    )
    (memdata\[0\]
      (T0 35568000) (T1 16128000) (TX 1728000)
      (TC 14) (IG 1)
    )
    (memdata\[10\]
      (T0 51696000) (T1 0) (TX 1728000)
      (TC 0) (IG 1)
    )
    (memdata\[11\]
      (T0 38448000) (T1 13248000) (TX 1728000)
      (TC 12) (IG 1)
    )
    (memdata\[12\]
      (T0 38448000) (T1 13248000) (TX 1728000)
      (TC 10) (IG 1)
    )
    (memdata\[13\]
      (T0 44784000) (T1 6912000) (TX 1728000)
      (TC 4) (IG 1)
    )
    (memdata\[14\]
      (T0 42480000) (T1 9216000) (TX 1728000)
      (TC 4) (IG 1)
    )
    (memdata\[15\]
      (T0 47088000) (T1 4608000) (TX 1728000)
      (TC 2) (IG 1)
    )
    (memdata\[16\]
      (T0 26928000) (T1 24768000) (TX 1728000)
      (TC 16) (IG 0)
    )
    (memdata\[17\]
      (T0 36720000) (T1 14976000) (TX 1728000)
      (TC 14) (IG 1)
    )
    (memdata\[18\]
      (T0 42480000) (T1 9216000) (TX 1728000)
      (TC 6) (IG 1)
    )
    (memdata\[19\]
      (T0 44784000) (T1 6912000) (TX 1728000)
      (TC 4) (IG 1)
    )
    (memdata\[1\]
      (T0 27072000) (T1 24624000) (TX 1728000)
      (TC 16) (IG 1)
    )
    (memdata\[20\]
      (T0 49392000) (T1 2304000) (TX 1728000)
      (TC 2) (IG 1)
    )
    (memdata\[21\]
      (T0 45360000) (T1 6336000) (TX 1728000)
      (TC 8) (IG 1)
    )
    (memdata\[22\]
      (T0 27504000) (T1 24192000) (TX 1728000)
      (TC 14) (IG 0)
    )
    (memdata\[23\]
      (T0 51696000) (T1 0) (TX 1728000)
      (TC 0) (IG 1)
    )
    (memdata\[24\]
      (T0 51696000) (T1 0) (TX 1728000)
      (TC 0) (IG 1)
    )
    (memdata\[25\]
      (T0 51696000) (T1 0) (TX 1728000)
      (TC 0) (IG 1)
    )
    (memdata\[26\]
      (T0 41328000) (T1 10368000) (TX 1728000)
      (TC 14) (IG 0)
    )
    (memdata\[27\]
      (T0 39168000) (T1 12528000) (TX 1728000)
      (TC 14) (IG 0)
    )
    (memdata\[28\]
      (T0 40176000) (T1 11520000) (TX 1728000)
      (TC 12) (IG 0)
    )
    (memdata\[29\]
      (T0 37872000) (T1 13824000) (TX 1728000)
      (TC 10) (IG 1)
    )
    (memdata\[2\]
      (T0 33840000) (T1 17856000) (TX 1728000)
      (TC 12) (IG 1)
    )
    (memdata\[30\]
      (T0 51696000) (T1 0) (TX 1728000)
      (TC 0) (IG 1)
    )
    (memdata\[31\]
      (T0 47088000) (T1 4608000) (TX 1728000)
      (TC 6) (IG 1)
    )
    (memdata\[3\]
      (T0 43200000) (T1 8496000) (TX 1728000)
      (TC 10) (IG 0)
    )
    (memdata\[4\]
      (T0 41904000) (T1 9792000) (TX 1728000)
      (TC 12) (IG 0)
    )
    (memdata\[5\]
      (T0 30384000) (T1 21312000) (TX 1728000)
      (TC 16) (IG 1)
    )
    (memdata\[6\]
      (T0 51696000) (T1 0) (TX 1728000)
      (TC 0) (IG 1)
    )
    (memdata\[7\]
      (T0 51696000) (T1 0) (TX 1728000)
      (TC 0) (IG 1)
    )
    (memdata\[8\]
      (T0 44784000) (T1 6912000) (TX 1728000)
      (TC 4) (IG 1)
    )
    (memdata\[9\]
      (T0 51696000) (T1 0) (TX 1728000)
      (TC 0) (IG 1)
    )
    (memread
      (T0 36288633) (T1 16847010) (TX 288357)
      (TC 96) (IG 0)
    )
    (memread_exp
      (T0 36288000) (T1 17136000) (TX 0)
      (TC 48) (IG 0)
    )
    (memwrite
      (T0 52559540) (T1 576158) (TX 288302)
      (TC 6) (IG 0)
    )
    (memwrite_exp
      (T0 52848000) (T1 576000) (TX 0)
      (TC 2) (IG 0)
    )
    (pcout\[0\]
      (T0 26063480) (T1 27072238) (TX 288282)
      (TC 28) (IG 0)
    )
    (pcout\[10\]
      (T0 53135718) (T1 0) (TX 288282)
      (TC 0) (IG 0)
    )
    (pcout\[11\]
      (T0 53135718) (T1 0) (TX 288282)
      (TC 0) (IG 0)
    )
    (pcout\[12\]
      (T0 53135718) (T1 0) (TX 288282)
      (TC 0) (IG 0)
    )
    (pcout\[13\]
      (T0 53135743) (T1 0) (TX 288257)
      (TC 0) (IG 0)
    )
    (pcout\[14\]
      (T0 53135743) (T1 0) (TX 288257)
      (TC 0) (IG 0)
    )
    (pcout\[15\]
      (T0 53135743) (T1 0) (TX 288257)
      (TC 0) (IG 0)
    )
    (pcout\[16\]
      (T0 53135718) (T1 0) (TX 288282)
      (TC 0) (IG 0)
    )
    (pcout\[17\]
      (T0 53135743) (T1 0) (TX 288257)
      (TC 0) (IG 0)
    )
    (pcout\[18\]
      (T0 53135718) (T1 0) (TX 288282)
      (TC 0) (IG 0)
    )
    (pcout\[19\]
      (T0 53135743) (T1 0) (TX 288257)
      (TC 0) (IG 0)
    )
    (pcout\[1\]
      (T0 27791582) (T1 25344136) (TX 288282)
      (TC 16) (IG 0)
    )
    (pcout\[20\]
      (T0 53135718) (T1 0) (TX 288282)
      (TC 0) (IG 0)
    )
    (pcout\[21\]
      (T0 53135743) (T1 0) (TX 288257)
      (TC 0) (IG 0)
    )
    (pcout\[22\]
      (T0 53135743) (T1 0) (TX 288257)
      (TC 0) (IG 0)
    )
    (pcout\[23\]
      (T0 53135743) (T1 0) (TX 288257)
      (TC 0) (IG 0)
    )
    (pcout\[24\]
      (T0 53135743) (T1 0) (TX 288257)
      (TC 0) (IG 0)
    )
    (pcout\[25\]
      (T0 53135718) (T1 0) (TX 288282)
      (TC 0) (IG 0)
    )
    (pcout\[26\]
      (T0 53135718) (T1 0) (TX 288282)
      (TC 0) (IG 0)
    )
    (pcout\[27\]
      (T0 53135718) (T1 0) (TX 288282)
      (TC 0) (IG 0)
    )
    (pcout\[28\]
      (T0 53135718) (T1 0) (TX 288282)
      (TC 0) (IG 0)
    )
    (pcout\[29\]
      (T0 53135718) (T1 0) (TX 288282)
      (TC 0) (IG 0)
    )
    (pcout\[2\]
      (T0 24911650) (T1 28224068) (TX 288282)
      (TC 8) (IG 0)
    )
    (pcout\[30\]
      (T0 53135718) (T1 0) (TX 288282)
      (TC 0) (IG 0)
    )
    (pcout\[31\]
      (T0 53135718) (T1 0) (TX 288282)
      (TC 0) (IG 0)
    )
    (pcout\[3\]
      (T0 24335650) (T1 28800068) (TX 288282)
      (TC 8) (IG 0)
    )
    (pcout\[4\]
      (T0 19151692) (T1 33984051) (TX 288257)
      (TC 6) (IG 0)
    )
    (pcout\[5\]
      (T0 49679709) (T1 3456034) (TX 288257)
      (TC 4) (IG 0)
    )
    (pcout\[6\]
      (T0 53135743) (T1 0) (TX 288257)
      (TC 0) (IG 0)
    )
    (pcout\[7\]
      (T0 53135718) (T1 0) (TX 288282)
      (TC 0) (IG 0)
    )
    (pcout\[8\]
      (T0 53135743) (T1 0) (TX 288257)
      (TC 0) (IG 0)
    )
    (pcout\[9\]
      (T0 53135718) (T1 0) (TX 288282)
      (TC 0) (IG 0)
    )
    (pcout_exp\[0\]
      (T0 26352000) (T1 27072000) (TX 0)
      (TC 28) (IG 0)
    )
    (pcout_exp\[10\]
      (T0 53424000) (T1 0) (TX 0)
      (TC 0) (IG 0)
    )
    (pcout_exp\[11\]
      (T0 53424000) (T1 0) (TX 0)
      (TC 0) (IG 0)
    )
    (pcout_exp\[12\]
      (T0 53424000) (T1 0) (TX 0)
      (TC 0) (IG 0)
    )
    (pcout_exp\[13\]
      (T0 53424000) (T1 0) (TX 0)
      (TC 0) (IG 0)
    )
    (pcout_exp\[14\]
      (T0 53424000) (T1 0) (TX 0)
      (TC 0) (IG 0)
    )
    (pcout_exp\[15\]
      (T0 53424000) (T1 0) (TX 0)
      (TC 0) (IG 0)
    )
    (pcout_exp\[16\]
      (T0 53424000) (T1 0) (TX 0)
      (TC 0) (IG 0)
    )
    (pcout_exp\[17\]
      (T0 53424000) (T1 0) (TX 0)
      (TC 0) (IG 0)
    )
    (pcout_exp\[18\]
      (T0 53424000) (T1 0) (TX 0)
      (TC 0) (IG 0)
    )
    (pcout_exp\[19\]
      (T0 53424000) (T1 0) (TX 0)
      (TC 0) (IG 0)
    )
    (pcout_exp\[1\]
      (T0 28080000) (T1 25344000) (TX 0)
      (TC 16) (IG 0)
    )
    (pcout_exp\[20\]
      (T0 53424000) (T1 0) (TX 0)
      (TC 0) (IG 0)
    )
    (pcout_exp\[21\]
      (T0 53424000) (T1 0) (TX 0)
      (TC 0) (IG 0)
    )
    (pcout_exp\[22\]
      (T0 53424000) (T1 0) (TX 0)
      (TC 0) (IG 0)
    )
    (pcout_exp\[23\]
      (T0 53424000) (T1 0) (TX 0)
      (TC 0) (IG 0)
    )
    (pcout_exp\[24\]
      (T0 53424000) (T1 0) (TX 0)
      (TC 0) (IG 0)
    )
    (pcout_exp\[25\]
      (T0 53424000) (T1 0) (TX 0)
      (TC 0) (IG 0)
    )
    (pcout_exp\[26\]
      (T0 53424000) (T1 0) (TX 0)
      (TC 0) (IG 0)
    )
    (pcout_exp\[27\]
      (T0 53424000) (T1 0) (TX 0)
      (TC 0) (IG 0)
    )
    (pcout_exp\[28\]
      (T0 53424000) (T1 0) (TX 0)
      (TC 0) (IG 0)
    )
    (pcout_exp\[29\]
      (T0 53424000) (T1 0) (TX 0)
      (TC 0) (IG 0)
    )
    (pcout_exp\[2\]
      (T0 25200000) (T1 28224000) (TX 0)
      (TC 8) (IG 0)
    )
    (pcout_exp\[30\]
      (T0 53424000) (T1 0) (TX 0)
      (TC 0) (IG 0)
    )
    (pcout_exp\[31\]
      (T0 53424000) (T1 0) (TX 0)
      (TC 0) (IG 0)
    )
    (pcout_exp\[3\]
      (T0 24624000) (T1 28800000) (TX 0)
      (TC 8) (IG 0)
    )
    (pcout_exp\[4\]
      (T0 19440000) (T1 33984000) (TX 0)
      (TC 6) (IG 0)
    )
    (pcout_exp\[5\]
      (T0 49968000) (T1 3456000) (TX 0)
      (TC 4) (IG 0)
    )
    (pcout_exp\[6\]
      (T0 53424000) (T1 0) (TX 0)
      (TC 0) (IG 0)
    )
    (pcout_exp\[7\]
      (T0 53424000) (T1 0) (TX 0)
      (TC 0) (IG 0)
    )
    (pcout_exp\[8\]
      (T0 53424000) (T1 0) (TX 0)
      (TC 0) (IG 0)
    )
    (pcout_exp\[9\]
      (T0 53424000) (T1 0) (TX 0)
      (TC 0) (IG 0)
    )
    (rdAddr1\[0\]
      (T0 46223667) (T1 6912051) (TX 288282)
      (TC 6) (IG 0)
    )
    (rdAddr1\[1\]
      (T0 29519633) (T1 23616085) (TX 288282)
      (TC 10) (IG 0)
    )
    (rdAddr1\[2\]
      (T0 53135718) (T1 0) (TX 288282)
      (TC 0) (IG 0)
    )
    (rdAddr1\[3\]
      (T0 53135718) (T1 0) (TX 288282)
      (TC 0) (IG 0)
    )
    (rdAddr1\[4\]
      (T0 53135718) (T1 0) (TX 288282)
      (TC 0) (IG 0)
    )
    (rdAddr1_exp\[0\]
      (T0 46512000) (T1 6912000) (TX 0)
      (TC 6) (IG 0)
    )
    (rdAddr1_exp\[1\]
      (T0 29808000) (T1 23616000) (TX 0)
      (TC 10) (IG 0)
    )
    (rdAddr1_exp\[2\]
      (T0 53424000) (T1 0) (TX 0)
      (TC 0) (IG 0)
    )
    (rdAddr1_exp\[3\]
      (T0 53424000) (T1 0) (TX 0)
      (TC 0) (IG 0)
    )
    (rdAddr1_exp\[4\]
      (T0 53424000) (T1 0) (TX 0)
      (TC 0) (IG 0)
    )
    (rdAddr2\[0\]
      (T0 26639616) (T1 26496102) (TX 288282)
      (TC 12) (IG 0)
    )
    (rdAddr2\[1\]
      (T0 36431633) (T1 16704085) (TX 288282)
      (TC 10) (IG 0)
    )
    (rdAddr2\[2\]
      (T0 43919667) (T1 9216051) (TX 288282)
      (TC 6) (IG 0)
    )
    (rdAddr2\[3\]
      (T0 46223684) (T1 6912034) (TX 288282)
      (TC 4) (IG 0)
    )
    (rdAddr2\[4\]
      (T0 50831701) (T1 2304017) (TX 288282)
      (TC 2) (IG 0)
    )
    (rdAddr2_exp\[0\]
      (T0 26928000) (T1 26496000) (TX 0)
      (TC 12) (IG 0)
    )
    (rdAddr2_exp\[1\]
      (T0 36720000) (T1 16704000) (TX 0)
      (TC 10) (IG 0)
    )
    (rdAddr2_exp\[2\]
      (T0 44208000) (T1 9216000) (TX 0)
      (TC 6) (IG 0)
    )
    (rdAddr2_exp\[3\]
      (T0 46512000) (T1 6912000) (TX 0)
      (TC 4) (IG 0)
    )
    (rdAddr2_exp\[4\]
      (T0 51120000) (T1 2304000) (TX 0)
      (TC 2) (IG 0)
    )
    (regwrite
      (T0 43919626) (T1 9216036) (TX 288338)
      (TC 32) (IG 0)
    )
    (regwrite_exp
      (T0 44208000) (T1 9216000) (TX 0)
      (TC 32) (IG 0)
    )
    (reset
      (T0 51840000) (T1 1584000) (TX 0)
      (TC 2) (IG 0)
    )
    (vectornum\[0\]
      (T0 26928000) (T1 26496000) (TX 0)
      (TC 93) (IG 0)
    )
    (vectornum\[10\]
      (T0 53424000) (T1 0) (TX 0)
      (TC 0) (IG 0)
    )
    (vectornum\[11\]
      (T0 53424000) (T1 0) (TX 0)
      (TC 0) (IG 0)
    )
    (vectornum\[12\]
      (T0 53424000) (T1 0) (TX 0)
      (TC 0) (IG 0)
    )
    (vectornum\[13\]
      (T0 53424000) (T1 0) (TX 0)
      (TC 0) (IG 0)
    )
    (vectornum\[14\]
      (T0 53424000) (T1 0) (TX 0)
      (TC 0) (IG 0)
    )
    (vectornum\[15\]
      (T0 53424000) (T1 0) (TX 0)
      (TC 0) (IG 0)
    )
    (vectornum\[1\]
      (T0 26928000) (T1 26496000) (TX 0)
      (TC 46) (IG 0)
    )
    (vectornum\[2\]
      (T0 27504000) (T1 25920000) (TX 0)
      (TC 23) (IG 0)
    )
    (vectornum\[3\]
      (T0 27504000) (T1 25920000) (TX 0)
      (TC 11) (IG 0)
    )
    (vectornum\[4\]
      (T0 27504000) (T1 25920000) (TX 0)
      (TC 5) (IG 0)
    )
    (vectornum\[5\]
      (T0 34992000) (T1 18432000) (TX 0)
      (TC 2) (IG 0)
    )
    (vectornum\[6\]
      (T0 36720000) (T1 16704000) (TX 0)
      (TC 1) (IG 0)
    )
    (vectornum\[7\]
      (T0 53424000) (T1 0) (TX 0)
      (TC 0) (IG 0)
    )
    (vectornum\[8\]
      (T0 53424000) (T1 0) (TX 0)
      (TC 0) (IG 0)
    )
    (vectornum\[9\]
      (T0 53424000) (T1 0) (TX 0)
      (TC 0) (IG 0)
    )
    (wrAddr\[0\]
      (T0 27215506) (T1 25920146) (TX 288348)
      (TC 22) (IG 0)
    )
    (wrAddr\[1\]
      (T0 35279489) (T1 17856163) (TX 288348)
      (TC 14) (IG 0)
    )
    (wrAddr\[2\]
      (T0 42191521) (T1 10944131) (TX 288348)
      (TC 12) (IG 0)
    )
    (wrAddr\[3\]
      (T0 43919513) (T1 9216139) (TX 288348)
      (TC 12) (IG 0)
    )
    (wrAddr\[4\]
      (T0 50255609) (T1 2880038) (TX 288353)
      (TC 4) (IG 0)
    )
    (wrAddr_exp\[0\]
      (T0 27504000) (T1 25920000) (TX 0)
      (TC 22) (IG 0)
    )
    (wrAddr_exp\[1\]
      (T0 35568000) (T1 17856000) (TX 0)
      (TC 14) (IG 0)
    )
    (wrAddr_exp\[2\]
      (T0 42480000) (T1 10944000) (TX 0)
      (TC 12) (IG 0)
    )
    (wrAddr_exp\[3\]
      (T0 44208000) (T1 9216000) (TX 0)
      (TC 12) (IG 0)
    )